
PER CERCARE TUTTE LE RIGHE AGGIUNTE NEI FILE .dat e .m:
cercare: ADDED_SRWT

-SRWTontroller/DISCON_Unifi50kW.IN
riga 11: cambiato 0 con 3, VS_ControlMode
riga 20: aggiunta                   Rgn2_Mode
riga 21: aggiunta                   Rgn3_Mode
riga 22: aggiunta                   M_Rgn3Lin
riga 66: cambiato 3.14 con 2.61799, VS_MinOMSpd
riga 68: cambiato 7465 con 15000,   VS_RtTq
riga 69: cambiato 7.125 con 5.864,  VS_RefSpd (56 rpm)
riga 71: cambiato -6882.975 con -1792,  VS_KP
riga 72: cambiato -2294.325 con -896,    VS_KI
riga 74: aggiunta                   VS_RtWspd

-AD_files/3DPolars/S820_Ncr9_Re1M_360Mg_3DBak.dat:
180° e -180° devono avere gli stessi valori: uguagliato i valori di 180° con quelli di -180°
-AD_files/3DPolars/S821_Ncr9_Re1M_360Mg_3DBak.dat:
180° e -180° devono avere gli stessi valori: uguagliato i valori di 180° con quelli di -180°
-AD_files/UNIFI_50kW_Reference_SWT_ADyn15OF.dat:
riga 6: cambiato 2 con 1, WakeMod
riga 8: cambiato 2 con 1, TwrPotent

-IF_files/IF_ws12_ti0_s213_y0_i0.dat:
riga 16: cambiato "..\..\Windfield_Generator\Windfields\ws3_ti42-0_s203_y0_i-8.bts" con "TurbSim\step_wind_speed.wnd"
riga 16: cambiato Filename con  Filename_Uni
riga 20: cambiato Filename con  Filename_BTS
riga 34: cambiato RefHt    con  RefHt_Hawc
riga 46: cambiato PLExp    con  PLExp_Hawc

-SD_files/UNIFI_50kW_Reference_SWT_ServoDyn.dat:
riga 19: cambiato 5 con 4,        VSContrl
riga 22: cambiato True con False, GenTiStr
riga 24: cambiato 9999.9 con 1,   SpdGenOn
riga 47: cambiato 0 con 4,        HSSBrMode
riga 52: cambiato 0 con 4,        YCMode

-SRWT_50kWUnifi\Matlab_Toolbox\Utilities\Pre_LoadRotPerf.m
riga 10:          aggiunta
righe da 26 a 33: aggiunte
righe da 53 a 70: aggiunte
righe da 89 a 93: aggiunte
riga 104:         aggiunta
riga 106:         aggiunta
riga 110:         aggiunta

-SRWT_50kWUnifi\Matlab_Toolbox\Utilities\load_SRWT_params.m
righe 12-14: aggiunte
riga 48:     aggiunta


